*Heading
** Job name: Job-1 Model name: sample
** Generated by: Abaqus/CAE 2022
*Preprint, echo=NO, model=NO, history=NO, contact=NO
**
** PARTS
**
*Part, name=Part-1
*Node
1, 0.000000, 0.000000, 0.00000000
2, 0.100000, 0.000000, 0.00000000
3, 0.200000, 0.000000, 0.00000000
4, 0.300000, 0.000000, 0.00000000
5, 0.400000, 0.000000, 0.00000000
6, 0.500000, 0.000000, 0.00000000
7, 0.600000, 0.000000, 0.00000000
8, 0.700000, 0.000000, 0.00000000
9, 0.800000, 0.000000, 0.00000000
10, 0.900000, 0.000000, 0.00000000
11, 1.000000, 0.000000, 0.00000000
12, 1.100000, 0.000000, 0.00000000
13, 1.200000, 0.000000, 0.00000000
14, 1.300000, 0.000000, 0.00000000
15, 1.400000, 0.000000, 0.00000000
16, 1.500000, 0.000000, 0.00000000
17, 1.600000, 0.000000, 0.00000000
18, 1.700000, 0.000000, 0.00000000
19, 1.800000, 0.000000, 0.00000000
20, 1.900000, 0.000000, 0.00000000
** ... 6541 like lines cut
*Element, type=S4R
   1,    1,    2,   83,   82
   2,    2,    3,   84,   83
   3,    3,    4,   85,   84
   4,    4,    5,   86,   85
   5,    5,    6,   87,   86
   6,    6,    7,   88,   87
   7,    7,    8,   89,   88
   8,    8,    9,   90,   89
   9,    9,   10,   91,   90
  10,   10,   11,   92,   91
  11,   11,   12,   93,   92
  12,   12,   13,   94,   93
  13,   13,   14,   95,   94
  14,   14,   15,   96,   95
  15,   15,   16,   97,   96
  16,   16,   17,   98,   97
  17,   17,   18,   99,   98
  18,   18,   19,  100,   99
  19,   19,   20,  101,  100
  20,   20,   21,  102,  101
** ... 6380 like lines cut
*Nset, nset=Set-1, generate
    1,  6561,     1
*Elset, elset=Set-1, generate
    1,  6400,     1
** Section: Section-1-SET-1
*Shell Section, elset=SET-1, composite
0.0075, 3, Composite, 65.0
0.0075, 3, Composite, -65.0
0.0075, 3, Composite, 19.0
0.0075, 3, Composite, -19.0
0.0075, 3, Composite, 65.0
0.0075, 3, Composite, -65.0
0.0075, 3, Composite, 19.0
0.0075, 3, Composite, -19.0
0.0075, 3, Composite, 65.0
0.0075, 3, Composite, -65.0
0.0075, 3, Composite, 19.0
0.0075, 3, Composite, -19.0
0.0075, 3, Composite, 65.0
0.0075, 3, Composite, -65.0
0.0075, 3, Composite, 19.0
0.0075, 3, Composite, -19.0
*End Part
**
**
** ASSEMBLY
**
*Assembly, name=Assembly
**
*Instance, name=Part-1-1, part=Part-1
*End Instance
**
*Nset, nset=Set-1, instance=Part-1-1, generate
    1,  6481,    81
*Elset, elset=Set-1, instance=Part-1-1, generate
    1,  6321,    80
*Nset, nset=Set-2, instance=Part-1-1, generate
   81,  6561,    81
*Elset, elset=Set-2, instance=Part-1-1, generate
   80,  6400,    80
*Nset, nset=Set-3, instance=Part-1-1, generate
  1,  81,   1
*Elset, elset=Set-3, instance=Part-1-1, generate
  1,  80,   1
*Nset, nset=Set-4, instance=Part-1-1, generate
 6481,  6561,     1
*Elset, elset=Set-4, instance=Part-1-1, generate
 6321,  6400,     1
*Nset, nset=Set-5, instance=Part-1-1, generate
   81,  6561,    81
*Elset, elset=Set-5, instance=Part-1-1, generate
   80,  6400,    80
*End Assembly
**
** MATERIALS
**
*Material, name=COMPOSITE
*Density
 0.000144,
*Elastic, type=ENGINEERING CONSTANTS
 2.15e+07, 1.23e+06, 1.23e+06,    0.329,    0.329,    0.329,  571000.,  571000.
  571000.,
**
** BOUNDARY CONDITIONS
**
** Name: BC-1 Type: Displacement/Rotation
*Boundary
Set-1, 1, 1
Set-1, 2, 2
Set-1, 3, 3
Set-1, 4, 4
Set-1, 5, 5
Set-1, 6, 6
** Name: BC-2 Type: Displacement/Rotation
*Boundary
Set-2, 2, 2
Set-2, 3, 3
Set-2, 4, 4
Set-2, 5, 5
Set-2, 6, 6
** Name: BC-3 Type: Displacement/Rotation
*Boundary
Set-3, 3, 3
** Name: BC-4 Type: Displacement/Rotation
*Boundary
Set-4, 3, 3
** ----------------------------------------------------------------
**
** STEP: Step-1
**
*Step, name=Step-1, nlgeom=YES, inc=100000
*Static
0.001, 1., 1e-14, 0.001
**
** BOUNDARY CONDITIONS
**
** Name: BC-5 Type: Displacement/Rotation
*Boundary
Set-5, 1, 1, -0.15
**
** OUTPUT REQUESTS
**
*Restart, write, frequency=0
**
** FIELD OUTPUT: F-Output-1
**
*Output, field, variable=PRESELECT
**
** HISTORY OUTPUT: H-Output-1
**
*Output, history, variable=PRESELECT
*End Step
